# B3LYP/6-31+G* NMR pop=nbo6read IOp(10/46=1)

biphenyl

0 1
 H                  1.90900000   -0.93500000    0.91600000
 C                  1.07900000   -0.51700000    1.45200000
 C                 -1.07900000    0.51700000    2.83500000
 C                  0.00000000    0.00000000    0.74500000
 C                  1.07900000   -0.51700000    2.83500000
 C                  0.00000000    0.00000000    3.53100000
 C                 -1.07900000    0.51700000    1.45200000
 H                  1.91500000   -0.92500000    3.36700000
 H                  0.00000000    0.00000000    4.60300000
 H                 -1.90900000    0.93500000    0.91600000
 H                 -1.91500000    0.92500000    3.36700000
 C                  0.00000000    0.00000000   -0.74500000
 C                  0.00000000    0.00000000   -3.53100000
 C                  1.07900000    0.51700000   -1.45200000
 C                 -1.07900000   -0.51700000   -1.45200000
 C                 -1.07900000   -0.51700000   -2.83500000
 C                  1.07900000    0.51700000   -2.83500000
 H                  1.90900000    0.93500000   -0.91600000
 H                 -1.90900000   -0.93500000   -0.91600000
 H                 -1.91500000   -0.92500000   -3.36700000
 H                  1.91500000    0.92500000   -3.36700000
 H                  0.00000000    0.00000000   -4.60300000
 Bq                    0.432106       0.901823       2.138333
 Bq                   -0.432106      -0.901823       2.138333
 Bq                    0.432106      -0.901823      -2.145000
 Bq                   -0.432106       0.901823      -2.145000
 Bq                    0.000000       0.000000       2.145000

$NBO NPA NBO NBOSUM BNDIDX E2PERT NLMO DIPOLE CMO NRT NCS <XYZ MO> $END
