%nprocshared=8
%mem=10GB
%chk=6radialene.chk
#p opt freq rb3lyp/6-31g(d)

Title Card Required

0 1
 C                 -0.60100000    3.53300000   -0.85800000
 H                 -0.83200000    4.45200000   -0.32900000
 H                 -0.83200000    2.61500000   -0.32900000
 C                 -0.11100000    3.53300000   -2.11400000
 C                  0.11100000    4.80900000   -2.85100000
 C                  0.60100000    5.89700000   -2.22300000
 H                  0.83200000    6.81500000   -2.75400000
 H                  0.83200000    5.89600000   -1.16300000
 C                 -0.11100000    4.80900000   -4.32400000
 C                 -0.60100000    5.89700000   -4.95200000
 H                 -0.83200000    5.89600000   -6.01200000
 H                 -0.83200000    6.81500000   -4.42100000
 C                  0.11100000    3.53300000   -5.06100000
 C                  0.60100000    3.53300000   -6.31700000
 H                  0.83200000    2.61500000   -6.84600000
 H                  0.83200000    4.45200000   -6.84600000
 C                 -0.11100000    2.25700000   -4.32400000
 C                 -0.60100000    1.16900000   -4.95200000
 H                 -0.83200000    0.25200000   -4.42100000
 H                 -0.83200000    1.17100000   -6.01200000
 C                  0.11100000    2.25700000   -2.85100000
 C                  0.60100000    1.16900000   -2.22300000
 H                  0.83200000    1.17100000   -1.16300000
 H                  0.83200000    0.25200000   -2.75400000

