%nprocshared=6
%mem=8GB
%chk=drch_6_1.chk
#p rhf/sto-3g

Title Card Required

0 1
 C                  1.02487200    0.77202200   -0.09102400
 C                  1.02486800   -0.77202700    0.09102200
 C                 -0.40843900   -1.17471900   -0.07883100
 C                 -1.34320300    0.00000400   -0.00000400
 C                 -0.40843000    1.17472100    0.07884100
 H                  1.69751600    1.27869100    0.61568500
 H                  1.39869400    1.03763300   -1.09641700
 H                  1.39870000   -1.03764400    1.09640900
 H                  1.69750100   -1.27869900   -0.61569600
 H                 -2.02286100    0.05395600   -0.87312300
 H                 -2.02288500   -0.05394400    0.87309400
 H                 -0.74232700    2.20665300    0.11941000
 H                 -0.74234200   -2.20665000   -0.11939100

--Link1--
%nprocshared=6
%mem=8GB
%oldchk=drch_6_1.chk
%chk=drch_6_2.chk
#p casscf(2,2)/sto-3g guess=read pop=no geom=allcheck

--Link1--
%nprocshared=6
%mem=8GB
%oldchk=drch_6_2.chk
%chk=drch_6_3.chk
#p casscf(2,2)/4-31g guess=read pop=no geom=allcheck

--Link1--
%nprocshared=6
%mem=8GB
%oldchk=drch_6_3.chk
%chk=drch_6_4.chk
#p casscf(2,2)/6-31g(d) guess=read pop=no geom=allcheck













