%nprocshared=8
%mem=10GB
%chk=methylazulene.chk
#p opt freq rwb97xd/6-31g(d)

Title Card Required

0 1
 C                  0.55500000    3.73200000    0.75800000
 H                  0.64400000    4.75300000    1.13200000
 C                  0.07700000    3.58300000   -0.48600000
 H                 -0.18400000    4.49300000   -1.02700000
 C                 -0.15200000    2.37400000   -1.24500000
 H                 -0.55100000    2.54700000   -2.24300000
 C                  0.06800000    1.11100000   -0.85900000
 C                 -0.19200000   -0.05300000   -1.68800000
 H                 -0.58400000   -0.04300000   -2.69100000
 C                  0.15000000   -1.12800000   -0.96300000
 H                  0.08500000   -2.15800000   -1.27500000
 C                  0.63200000   -0.69500000    0.33400000
 C                  0.59300000    0.65000000    0.42200000
 C                  0.98100000    2.73200000    1.71100000
 H                  1.32800000    3.14400000    2.65900000
 C                  1.00300000    1.39800000    1.57900000
 H                  1.36400000    0.81200000    2.42200000
 C                  1.11123089   -1.67200346    1.42367977
 H                  2.13297409   -1.46459481    1.66435069
 H                  0.50751805   -1.55387153    2.29916572
 H                  1.02617251   -2.67637086    1.06463772

