%nprocshared=8
%mem=10GB
# opt freq b3lyp/6-31+g(d)

title

0 1
 C                 -2.96292735   -1.37776232    2.34412329
 H                 -3.91358911   -3.24557560    2.36511160
 C                 -2.19933829   -0.51291048    1.59118541
 C                 -1.08607265   -1.59873768   -2.34412329
 C                 -2.23157919   -2.11438654   -0.26513808
 C                 -1.81742081   -0.86211346    0.26513808
 H                 -2.14645018   -3.30748680   -1.93535091
 H                 -0.80423336   -1.83888170   -3.25104686
 H                 -0.76084457    0.83758710   -0.16847761
 C                 -3.01509821   -2.98739399    0.54127003
 H                 -3.28815543   -3.81408710    0.16847761
 H                 -3.24476664   -1.13761830    3.25104686
 C                 -1.03390179    0.01089399   -0.54127003
 H                 -1.90254982    0.33098680    1.93535091
 C                 -3.37590246   -2.62057013    1.81755935
 C                 -0.67309754   -0.35592987   -1.81755935
 H                 -0.13541089    0.26907560   -2.36511160
 C                 -1.84966171   -2.46358952   -1.59118541

