%nproc=8
%mem=10gb
# ub3lyp/6-31+G*

title

-1 2
 C            -0.942979            0.110042            2.353537
 H            -1.955254            -1.810606            2.426277
 C            -0.180275            0.972453            1.595413
 C            0.942979            -0.110042            -2.353537
 C            -0.207989            -0.631167            -0.270002
 C            0.207989            0.631167            0.270002
 H            -0.135911            -1.930266            -2.003343
 H            1.232581            -0.383902            -3.364830
 H            1.308800            2.455159            -0.127544
 C            -0.994329            -1.498197            0.538585
 H            -1.308800            -2.455159            0.127544
 H            -1.232581            0.383902            3.364830
 C            0.994329            1.498197            -0.538585
 H            0.135911            1.930266            2.003343
 C            -1.354173            -1.138108            1.819672
 C            1.354173            1.138108            -1.819672
 H            1.955254            1.810606            -2.426277
 C            0.180275            -0.972453            -1.595413


