%nprocshared=6
%mem=6GB
%chk=benzene.chk
#p opt freq rb3lyp/6-31g(d)

Title Card Required

0 1
 C                 -1.28099179    0.82644627    0.00000000
 C                  0.11416821    0.82644627    0.00000000
 C                  0.81170621    2.03419727    0.00000000
 C                  0.11405221    3.24270627   -0.00119900
 C                 -1.28077279    3.24262827   -0.00167800
 C                 -1.97837379    2.03442227   -0.00068200
 H                 -1.83075079   -0.12587073    0.00045000
 H                  0.66367621   -0.12606673    0.00131500
 H                  1.91138621    2.03427727    0.00063400
 H                  0.66425221    4.19484927   -0.00125800
 H                 -1.83089479    4.19490927   -0.00263100
 H                 -3.07797779    2.03460527   -0.00086200

