%nprocshared=8
%mem=10GB
#p opt rb3lyp/6-311+g(2d,p)

Benzene//optimization

0 1
 C                  0.12565445    0.25654450    0.00000000
 C                  1.52081445    0.25654450    0.00000000
 C                  2.21835245    1.46429550    0.00000000
 C                  1.52069845    2.67280450   -0.00119900
 C                  0.12587345    2.67272650   -0.00167800
 C                 -0.57172755    1.46452050   -0.00068200
 H                 -0.42410455   -0.69577250    0.00045000
 H                  2.07032245   -0.69596850    0.00131500
 H                  3.31803245    1.46437550    0.00063400
 H                  2.07089845    3.62494750   -0.00125800
 H                 -0.42424855    3.62500750   -0.00263100
 H                 -1.67133155    1.46470350   -0.00086200

